Circuit: * C:\Work\floor-heating-controller-s2\sim\diff_to_single.asc

Direct Newton iteration for .op point succeeded.
Heightened Def Con from 0.000252877 to 0.000252877
Heightened Def Con from 0.00029919 to 0.00029919
Heightened Def Con from 0.000302873 to 0.000302873
Heightened Def Con from 0.000302873 to 0.000302873
Heightened Def Con from 0.000452885 to 0.000452885
Heightened Def Con from 0.00049917 to 0.00049917
Heightened Def Con from 0.000502889 to 0.000502889
Heightened Def Con from 0.000549166 to 0.000549166
Heightened Def Con from 0.000599163 to 0.000599163
Heightened Def Con from 0.000652894 +to 0.000652894
Heightened Def Con from 0.000702896 to 0.000702896
Heightened Def Con from 0.000749156 to 0.000749156
Heightened Def Con from 0.000749156 to 0.000749156
Heightened Def Con from 0.000799153 to 0.000799153
Heightened Def Con from 0.000799153 to 0.000799153
Heightened Def Con from 0.000849152 to 0.000849152
Heightened Def Con from 0.0008529 to 0.0008529
Heightened Def Con from 0.0010029 to 0.0010029
Heightened Def Con from 0.0010029 to 0.0010029
Heightened Def Con from 0.0012029 to 0.0012029
Heightened Def Con from 0.00124914 to 0.00124914
Heightened Def Con from 0.00130291 to 0.00130291
Heightened Def Con from 0.00130291 +to 0.00130291
Heightened Def Con from 0.00140291 ++++to 0.00140291
Heightened Def Con from 0.00145291 to 0.00145291
Heightened Def Con from 0.00195291 to 0.00195291
Heightened Def Con from 0.00205291 to 0.00205291
Heightened Def Con from 0.00215291 to 0.00215291
Heightened Def Con from 0.00215291 to 0.00215291
Heightened Def Con from 0.00225291 to 0.00225291
Heightened Def Con from 0.00260291 to 0.00260291
Heightened Def Con from 0.00305291 +++to 0.00305291
Heightened Def Con from 0.00309914 to 0.00309914
Heightened Def Con from 0.00360291 to 0.00360291
Heightened Def Con from 0.00395291 to 0.00395291
Heightened Def Con from 0.00405291 to 0.00405291
Heightened Def Con from 0.00420291 to 0.00420291
Heightened Def Con from 0.00435291 to 0.00435291
Heightened Def Con from 0.00435291 +to 0.00435291
Heightened Def Con from 0.00445291 to 0.00445291
Heightened Def Con from 0.00465291 to 0.00465291
Heightened Def Con from 0.00475291 ++to 0.00475291
Heightened Def Con from 0.00505291 to 0.00505291
Heightened Def Con from 0.00525291 to 0.00525291
Heightened Def Con from 0.00525291 ++to 0.00525291
Heightened Def Con from 0.00535291 to 0.00535291
Heightened Def Con from 0.00560291 to 0.00560291
Heightened Def Con from 0.00570291 ++to 0.00570291
Heightened Def Con from 0.00585291 to 0.00585291
Heightened Def Con from 0.00590291 to 0.00590291
Heightened Def Con from 0.00590291 to 0.00590291
Heightened Def Con from 0.00595291 to 0.00595291
Heightened Def Con from 0.00605291 to 0.00605291
Heightened Def Con from 0.00615291 to 0.00615291
Heightened Def Con from 0.00620291 to 0.00620291
Heightened Def Con from 0.00635291 ++to 0.00635291
Heightened Def Con from 0.00665291 ++to 0.00665291
Heightened Def Con from 0.00685291 to 0.00685291
Heightened Def Con from 0.00695291 +++++to 0.00695291
Heightened Def Con from 0.00720291 ++to 0.00720291
Heightened Def Con from 0.00725291 to 0.00725291
Heightened Def Con from 0.00730291 to 0.00730291
Heightened Def Con from 0.00730291 to 0.00730291
Heightened Def Con from 0.00750291 to 0.00750291
Heightened Def Con from 0.00750291 to 0.00750291
Heightened Def Con from 0.00775291 to 0.00775291
Heightened Def Con from 0.00790291 to 0.00790291
Heightened Def Con from 0.00799914 ++to 0.00799914
Heightened Def Con from 0.00804914 to 0.00804914
Heightened Def Con from 0.00805291 +++to 0.00805291
Heightened Def Con from 0.00815291 ++to 0.00815291
Heightened Def Con from 0.00820291 to 0.00820291
Heightened Def Con from 0.00830291 +++to 0.00830291
Heightened Def Con from 0.00839914 to 0.00839914
Heightened Def Con from 0.00874914 to 0.00874914
Heightened Def Con from 0.00880291 to 0.00880291
Heightened Def Con from 0.00899914 to 0.00899914
Heightened Def Con from 0.00899914 to 0.00899914
Heightened Def Con from 0.00900291 to 0.00900291
Heightened Def Con from 0.00900291 to 0.00900291
Heightened Def Con from 0.00924914 to 0.00924914
Heightened Def Con from 0.00940291 to 0.00940291
Heightened Def Con from 0.00944914 to 0.00944914
Heightened Def Con from 0.00949914 to 0.00949914
Heightened Def Con from 0.00955291 to 0.00955291
Heightened Def Con from 0.00959914 to 0.00959914
Heightened Def Con from 0.00959914 to 0.00959914
Heightened Def Con from 0.00960291 to 0.00960291
Heightened Def Con from 0.00969914 to 0.00969914
Heightened Def Con from 0.00974914 to 0.00974914
Heightened Def Con from 0.00974914 to 0.00974914
Heightened Def Con from 0.00979914 to 0.00979914
Heightened Def Con from 0.00980291 ++to 0.00980291
Heightened Def Con from 0.00980291 ++to 0.00980291
Heightened Def Con from 0.00985291 to 0.00985291
Heightened Def Con from 0.00985291 to 0.00985291
Heightened Def Con from 0.00989914 to 0.00989914
Heightened Def Con from 0.00995291 ++++to 0.00995291

Date: Mon Jan 15 23:15:51 2024
Total elapsed time: 0.706 seconds.

tnom = 27
temp = 27
method = modified trap
totiter = 166893
traniter = 166867
tranpoints = 47653
accept = 36025
rejected = 11771
matrix size = 57
fillins = 41
solver = Normal
Avg thread counts: 1.0/1.1/1.1/1.0
Matrix Compiler1: 4.71 KB object code size  0.8/0.5/[0.4]
Matrix Compiler2: 5.37 KB object code size  0.4/0.5/[0.3]

